IEEE_4_Power_seq_kVA.txt

SYMMETRICAL COMPONENT POWERS BY CIRCUIT ELEMENT (first 3 phases)                                     Excess Power

Element            Term    P1(kW)   Q1(kvar)       P2         Q2      P0      Q0       P_Norm      Q_Norm     P_Emerg    Q_Emerg

"Vsource.SOURCE"    1  -770661.0  -246170.1       -0.0       -0.0    -0.0    -0.0
"Vsource.SOURCE"    2        0.0        0.0        0.0        0.0     0.0     0.0
"Transformer.SUB1"  1        0.0        0.0       -0.0        0.0     0.0    -0.0        0.0        0.0        0.0        0.0
"Transformer.SUB1"  2        0.0       -0.0       -0.0       -0.0     0.0     0.0
"Line.1-2"          1   770661.0   246170.1        0.0        0.0     0.0     0.0   763402.9   243851.7   759773.9   242692.5
"Line.1-2"          2  -720766.6  -220357.2       -0.0       -0.0    -0.0    -0.0
"Line.2-3"          1   583976.3   117766.4        0.0        0.0     0.0     0.0   577018.0   116363.2   573538.9   115661.5
"Line.2-3"          2  -567308.6  -109277.2       -0.0       -0.0    -0.0    -0.0
"Line.3-4"          1   189481.6   109278.6        0.0        0.0     0.0     0.0   183518.3   105839.4   180536.7   104119.8
"Line.3-4"          2  -187707.9  -108375.4       -0.0       -0.0    -0.0    -0.0
"Load.2"            1   136778.4   102587.4        0.0        0.0     0.0     0.0
"Load.3"            1   377789.3       14.1        0.0        0.0     0.0     0.0
"Load.4"            1   187682.5   108371.4        0.0        0.0     0.0     0.0

Total Circuit Losses = 68335.9 +j 35205.4
